   27
Geometry Step: 0
   Ti      0.00000000      1.96794000      6.35973568
    O      0.00000000      0.00000000      6.00000000
    O      1.96794000      1.96794000      6.71947137
   Ti      0.00000000      5.90382000      6.35973568
    O      0.00000000      3.93588000      6.00000000
    O      1.96794000      5.90382000      6.71947137
   Ti      0.00000000      9.83970000      6.35973568
    O      0.00000000      7.87176000      6.00000000
    O      1.96794000      9.83970000      6.71947137
   Ti      0.00000000     13.77558000      6.35973568
    O      0.00000000     11.80764000      6.00000000
    O      1.96794000     13.77558000      6.71947137
    O      1.96013356     12.69431798      9.86546085
    O      3.93183850      5.82092666      8.35350641
    O      3.93068709      1.78170449      8.39124780
    O      1.96091394      0.06458221      9.41075741
    O      1.92977607      4.96030975     13.54923559
    O      3.91014042      4.08943502     11.71058019
    O      1.95404272      3.70964187      8.92884351
   Ti      1.96232099      1.78932321      8.63044481
   Ti      1.96582334     14.04852311      8.67748146
   Ti      1.96348954      5.47851266      8.69273132
   Ti      1.94984391      4.42914100     11.80532711
    O      1.94788596      5.86748606     10.57295985
   Ti      3.91014966      2.21875293     11.40518914
    O      3.93228364     14.01595766      8.33295110
    O      1.94633816      2.38768740     11.52555630
