   27
Geometry Step: 0
   Ti      0.00000000      1.96794000      6.35973568
    O      0.00000000      0.00000000      6.00000000
    O      1.96794000      1.96794000      6.71947137
   Ti      0.00000000      5.90382000      6.35973568
    O      0.00000000      3.93588000      6.00000000
    O      1.96794000      5.90382000      6.71947137
   Ti      0.00000000      9.83970000      6.35973568
    O      0.00000000      7.87176000      6.00000000
    O      1.96794000      9.83970000      6.71947137
   Ti      0.00000000     13.77558000      6.35973568
    O      0.00000000     11.80764000      6.00000000
    O      1.96794000     13.77558000      6.71947137
   Ti      0.89727175      7.86019600     10.09776185
    O      3.93312212     13.94090531      8.30162439
   Ti      1.96953374     13.96772241      8.62388913
    O      0.00418064     10.43180224      8.27947331
    O      1.94701151      3.52172936      9.35628859
    O      2.17192739      9.26414137     10.07869753
    O      2.16741903      6.45253979     10.07342429
   Ti      1.97685540     10.46122708      8.62502995
   Ti      1.96708095      1.75900228      8.62465812
    O      3.93323024      1.78621688      8.30654915
    O      1.94823583     12.20344736      9.34750926
    O      0.00634124      5.29825953      8.27617793
    O      1.96092823     15.73647404      9.34256521
    O      0.27864081      7.86614268      8.51262735
   Ti      1.97950272      5.25686450      8.61903750
