   27
Geometry Step: 0
   Ti      0.00000000      1.96794000      6.35973568
    O      0.00000000      0.00000000      6.00000000
    O      1.96794000      1.96794000      6.71947137
   Ti      0.00000000      5.90382000      6.35973568
    O      0.00000000      3.93588000      6.00000000
    O      1.96794000      5.90382000      6.71947137
   Ti      0.00000000      9.83970000      6.35973568
    O      0.00000000      7.87176000      6.00000000
    O      1.96794000      9.83970000      6.71947137
   Ti      0.00000000     13.77558000      6.35973568
    O      0.00000000     11.80764000      6.00000000
    O      1.96794000     13.77558000      6.71947137
    O      3.88866159     13.50853560      8.32665877
   Ti      2.03937737      2.42621662      8.68236396
    O      1.94013772     11.55533242      9.22063467
    O      3.68764161     15.14022777     12.11430549
   Ti      1.96421104      9.72479641      8.62597537
    O      2.71235396      1.45741077     10.27281563
    O      0.07288634      2.26876072      8.27857259
    O      0.00081416      6.05738117      8.34226511
    O      1.96773585      7.89533147      9.28411358
   Ti      1.96845588      6.06598494      8.62513333
   Ti      1.91540313     13.36388541      8.63265888
    O      3.93255824      9.72456991      8.34205799
    O      1.99095237      4.25036390      9.24703385
    O      1.71591345     14.88663546      9.87841777
   Ti      3.62347270     15.54583520     10.38103255
