   27
Geometry Step: 0
   Ti      0.00000000      1.96794000      6.35973568
    O      0.00000000      0.00000000      6.00000000
    O      1.96794000      1.96794000      6.71947137
   Ti      0.00000000      5.90382000      6.35973568
    O      0.00000000      3.93588000      6.00000000
    O      1.96794000      5.90382000      6.71947137
   Ti      0.00000000      9.83970000      6.35973568
    O      0.00000000      7.87176000      6.00000000
    O      1.96794000      9.83970000      6.71947137
   Ti      0.00000000     13.77558000      6.35973568
    O      0.00000000     11.80764000      6.00000000
    O      1.96794000     13.77558000      6.71947137
    O      1.29364016     11.80437799      8.19928896
   Ti      3.34735895     15.68548078      9.96999907
    O      1.90891867      7.94215956      9.33103352
    O      3.93284460      6.12923043      8.33641331
    O      2.34644554     10.97131480     10.30103097
    O      3.93433228      2.37652268      8.31627515
   Ti      1.96490965      6.15396510      8.63123032
    O      0.66323140     15.11443831      8.78652564
   Ti      1.96874619      2.58666529      8.63130493
    O      1.97017458      4.35571572      9.31392286
    O      2.66336975     14.16239810     10.64200469
    O      3.88580495      9.66396392      8.35461191
    O      2.03427506      1.32559397     10.04006165
   Ti      2.07246646     12.67754534      9.57269300
   Ti      1.91363657      9.82258423      8.72518931
