   27
Geometry Step: 0
   Ti      0.00000000      1.96794000      6.35973568
    O      0.00000000      0.00000000      6.00000000
    O      1.96794000      1.96794000      6.71947137
   Ti      0.00000000      5.90382000      6.35973568
    O      0.00000000      3.93588000      6.00000000
    O      1.96794000      5.90382000      6.71947137
   Ti      0.00000000      9.83970000      6.35973568
    O      0.00000000      7.87176000      6.00000000
    O      1.96794000      9.83970000      6.71947137
   Ti      0.00000000     13.77558000      6.35973568
    O      0.00000000     11.80764000      6.00000000
    O      1.96794000     13.77558000      6.71947137
   Ti      1.92213443     15.51140436     11.51553871
    O      1.92579139     13.73056370     10.93011288
   Ti      1.96440531      2.18789326      8.69326386
    O      1.96850676      7.75245563      9.16058721
    O      3.93532907      5.89183105      8.36267963
    O      3.92947252      9.81036644      8.34921876
    O      3.88663962     15.59395808     12.01376574
    O      3.93331074      1.98865546      8.35023995
    O      1.95714007      0.95347510     10.13907138
   Ti      1.96748984      5.88982226      8.62476052
   Ti      1.93715265     11.96379076     11.54503755
   Ti      1.96365306      9.59446969      8.69128073
    O      1.96401607      4.03508199      9.16365008
    O      3.90181429     11.87527757     12.05055696
    O      1.95371643     10.78754366     10.16846779
