   27
Geometry Step: 0
   Ti      0.00000000      1.96794000      6.35973568
    O      0.00000000      0.00000000      6.00000000
    O      1.96794000      1.96794000      6.71947137
   Ti      0.00000000      5.90382000      6.35973568
    O      0.00000000      3.93588000      6.00000000
    O      1.96794000      5.90382000      6.71947137
   Ti      0.00000000      9.83970000      6.35973568
    O      0.00000000      7.87176000      6.00000000
    O      1.96794000      9.83970000      6.71947137
   Ti      0.00000000     13.77558000      6.35973568
    O      0.00000000     11.80764000      6.00000000
    O      1.96794000     13.77558000      6.71947137
   Ti      1.96792209     10.03198624      8.62976471
    O      1.96779046      2.76107117      9.90265419
    O      1.96800749      3.67052597      3.77804204
    O      0.00023501      5.80681096      4.32939305
   Ti      0.00006556      4.00069734      4.07145762
    O      1.96785492     11.83133747      9.33535051
    O      3.93581216      1.58367443      8.31381315
    O      3.93585213     13.64331166      8.33900392
    O      1.96783095     15.40845645      9.36710630
   Ti      1.96794349      6.40573733      8.60280115
   Ti      1.96791528     13.62887700      8.63979786
    O      1.96796052      8.15624128      9.10625501
    O      3.93585402     10.00285613      8.34334673
    O      0.00000934      6.09687849      8.42385711
   Ti      1.96788448      1.44670527      8.66965381
