   27
Geometry Step: 0
   Ti      0.00000000      1.96794000      6.35973568
    O      0.00000000      0.00000000      6.00000000
    O      1.96794000      1.96794000      6.71947137
   Ti      0.00000000      5.90382000      6.35973568
    O      0.00000000      3.93588000      6.00000000
    O      1.96794000      5.90382000      6.71947137
   Ti      0.00000000      9.83970000      6.35973568
    O      0.00000000      7.87176000      6.00000000
    O      1.96794000      9.83970000      6.71947137
   Ti      0.00000000     13.77558000      6.35973568
    O      0.00000000     11.80764000      6.00000000
    O      1.96794000     13.77558000      6.71947137
    O      2.00934723     14.39027685     10.24552802
   Ti      0.00305301      8.00735125      9.33504451
    O      1.95251922      4.16650924      9.31123663
    O      0.00277120      6.30697209      8.40456671
   Ti      2.00504960     15.73004058     11.44219896
    O      0.03891636     15.70927845     11.89290446
    O      3.93457132     13.55304862      8.33343657
    O      0.00956939      2.14493765      8.33504705
    O      2.00701985      1.35305155     10.28871582
    O      1.97145568      7.98781588      9.80157592
    O      0.00315270      9.48077417      8.31108844
   Ti      1.98504600      2.35817762      8.67484417
    O      1.99156071     11.63401252      9.17891406
   Ti      3.90172421      4.76234708      9.45165379
   Ti      1.98087368     13.32939082      8.66462077
