   27
Geometry Step: 0
   Ti      0.00000000      1.96794000      6.35973568
    O      0.00000000      0.00000000      6.00000000
    O      1.96794000      1.96794000      6.71947137
   Ti      0.00000000      5.90382000      6.35973568
    O      0.00000000      3.93588000      6.00000000
    O      1.96794000      5.90382000      6.71947137
   Ti      0.00000000      9.83970000      6.35973568
    O      0.00000000      7.87176000      6.00000000
    O      1.96794000      9.83970000      6.71947137
   Ti      0.00000000     13.77558000      6.35973568
    O      0.00000000     11.80764000      6.00000000
    O      1.96794000     13.77558000      6.71947137
    O      1.97066031     10.77982947      9.79590644
   Ti      0.00111163     12.86661461     10.20456528
    O      0.02834809     11.69987027     11.60217860
    O      1.97462666     13.40352974     10.24812928
    O      1.97705952      0.46553374      9.13573347
    O      0.00071798      2.30262077      8.32995979
    O      1.96846491      4.09699043      9.33744598
    O      1.97415599      7.64437104      9.31241198
    O      3.93582243      9.58517230      8.30923319
   Ti      1.96907418      2.31645300      8.60309940
    O      0.00456872     13.82048451      8.41144122
   Ti      1.96716452      9.40812087      8.60958934
   Ti      1.96888588      5.87213318      8.62651244
   Ti      1.97188914     14.46935619      8.60261413
    O      0.00010935      5.88309020      8.34745436
