   27
Geometry Step: 0
   Ti      0.00000000      1.96794000      6.35973568
    O      0.00000000      0.00000000      6.00000000
    O      1.96794000      1.96794000      6.71947137
   Ti      0.00000000      5.90382000      6.35973568
    O      0.00000000      3.93588000      6.00000000
    O      1.96794000      5.90382000      6.71947137
   Ti      0.00000000      9.83970000      6.35973568
    O      0.00000000      7.87176000      6.00000000
    O      1.96794000      9.83970000      6.71947137
   Ti      0.00000000     13.77558000      6.35973568
    O      0.00000000     11.80764000      6.00000000
    O      1.96794000     13.77558000      6.71947137
   Ti      1.96793088      6.04219209      8.68752096
    O      1.96789162      9.83970676     10.75259274
   Ti      1.96789354      7.86397370     11.06763844
    O      3.93587279      9.83970871      8.34229698
    O      1.96792158      7.90052652      9.07501115
    O      1.96789836     13.77261687     10.60987960
    O      1.96792367     11.77890477      9.07500740
   Ti      1.96788812     11.81546784     11.06762037
    O      3.93587385      5.79051626      8.35477085
    O      1.96790526      5.90680132     10.60987122
   Ti      1.96793138     13.63719877      8.68752751
   Ti      1.96792877      9.83971515      8.72111668
    O      3.93587452     13.88890028      8.35477024
    O      3.93583393      7.83351218     11.50403608
    O      3.93582858     11.84590900     11.50403553
