   27
Geometry Step: 0
   Ti      0.00000000      1.96794000      6.35973568
    O      0.00000000      0.00000000      6.00000000
    O      1.96794000      1.96794000      6.71947137
   Ti      0.00000000      5.90382000      6.35973568
    O      0.00000000      3.93588000      6.00000000
    O      1.96794000      5.90382000      6.71947137
   Ti      0.00000000      9.83970000      6.35973568
    O      0.00000000      7.87176000      6.00000000
    O      1.96794000      9.83970000      6.71947137
   Ti      0.00000000     13.77558000      6.35973568
    O      0.00000000     11.80764000      6.00000000
    O      1.96794000     13.77558000      6.71947137
    O      1.96755007      3.93581123      9.39488776
   Ti      1.96926129      5.71165270      8.63490812
    O      2.04329316      7.51714963      9.25669090
    O      3.93356120      5.72242198      8.35148712
    O      1.67694413     10.46435295      9.90709967
    O      0.03328794     14.38125015      8.18793064
    O      1.67729571     13.15109976      9.90713978
    O      3.40063569     11.80761094      8.45242544
   Ti      0.35750927     11.80735993     10.02261331
   Ti      1.96928753      2.16015507      8.63489887
    O      2.04333363      0.35463087      9.25669704
   Ti      2.02004030      9.24913229      8.54376561
    O      0.03325009      9.23404683      8.18793939
    O      3.93356725      2.14932432      8.35148150
   Ti      2.02007438     14.36614623      8.54373967
