   27
Geometry Step: 0
   Ti      0.00000000      1.96794000      6.35973568
    O      0.00000000      0.00000000      6.00000000
    O      1.96794000      1.96794000      6.71947137
   Ti      0.00000000      5.90382000      6.35973568
    O      0.00000000      3.93588000      6.00000000
    O      1.96794000      5.90382000      6.71947137
   Ti      0.00000000      9.83970000      6.35973568
    O      0.00000000      7.87176000      6.00000000
    O      1.96794000      9.83970000      6.71947137
   Ti      0.00000000     13.77558000      6.35973568
    O      0.00000000     11.80764000      6.00000000
    O      1.96794000     13.77558000      6.71947137
   Ti      1.96794000      1.38465813      8.62233911
    O      1.96794000     15.35526798      9.30685069
    O      0.00000000      1.58404249      8.30563970
    O      1.96794000      8.26001225      9.30685138
   Ti      1.96794000     13.58888556      8.61547662
    O      1.96794000     11.80763821      9.31607604
   Ti      1.96794000      3.93584924     11.20206902
    O      1.96794000      5.37827342     10.12366088
    O      0.00000000      3.93588011     11.66935903
    O      0.00000000     13.62312936      8.33965814
   Ti      1.96794000     10.02639637      8.61547659
    O      0.00000000      6.28771764      8.30564004
    O      0.00000000      9.99215052      8.33965828
    O      1.96794000      2.49349358     10.12365347
   Ti      1.96794000      6.48712552      8.62230923
