   27
Geometry Step: 0
   Ti      0.00000000      1.96794000      6.35973568
    O      0.00000000      0.00000000      6.00000000
    O      1.96794000      1.96794000      6.71947137
   Ti      0.00000000      5.90382000      6.35973568
    O      0.00000000      3.93588000      6.00000000
    O      1.96794000      5.90382000      6.71947137
   Ti      0.00000000      9.83970000      6.35973568
    O      0.00000000      7.87176000      6.00000000
    O      1.96794000      9.83970000      6.71947137
   Ti      0.00000000     13.77558000      6.35973568
    O      0.00000000     11.80764000      6.00000000
    O      1.96794000     13.77558000      6.71947137
   Ti      0.05194179      3.88780395      9.48206336
    O      1.95600438     11.52338070      9.30848101
    O      3.93521597      9.72440271      8.34415596
   Ti      0.69503231      1.05159957     11.51735560
   Ti      1.96655403      9.73042130      8.62634701
   Ti      1.98289715      6.10211432      8.62673397
   Ti      1.95011220     13.32732584      8.66140745
    O      0.01718439      5.67155657      8.39014172
    O      2.66069549      0.80674409     11.78319652
    O      1.97219347      7.89665900      9.20318105
    O      3.91386593     13.41633084      8.30785555
    O      0.40070588      2.75745034     10.99860805
    O      0.00943078      2.57959422      8.27170094
    O      1.80904686     14.71638416      9.80602075
    O      2.01778026      4.47661210      9.67190474
