   27
Geometry Step: 0
   Ti      0.00000000      1.96794000      6.35973568
    O      0.00000000      0.00000000      6.00000000
    O      1.96794000      1.96794000      6.71947137
   Ti      0.00000000      5.90382000      6.35973568
    O      0.00000000      3.93588000      6.00000000
    O      1.96794000      5.90382000      6.71947137
   Ti      0.00000000      9.83970000      6.35973568
    O      0.00000000      7.87176000      6.00000000
    O      1.96794000      9.83970000      6.71947137
   Ti      0.00000000     13.77558000      6.35973568
    O      0.00000000     11.80764000      6.00000000
    O      1.96794000     13.77558000      6.71947137
    O      3.82249536      2.46097624      8.27963374
    O      1.96586322      8.78638941      9.43838280
    O      0.02208050     10.40965991      8.30086399
    O      1.83439447      3.05351037     10.10291162
   Ti      1.97191372      7.31010405      8.14940104
    O      1.92143708      6.26510972      9.71060886
   Ti      2.43076618     10.54137686      9.28162135
   Ti      1.89612694     13.51433002      8.86456167
   Ti      1.96698514      0.00997028      5.69308360
    O      0.00366169      5.19271878      8.35945344
   Ti      1.76711669      4.46061702      9.09257412
    O      3.84039628     13.50193645      8.28275622
    O      1.42215975     14.89582742      9.86961957
    O      0.77317077      6.21635516      3.71352637
    O      1.92036790     12.11527316     10.16848733
