   27
Geometry Step: 0
   Ti      0.00000000      1.96794000      6.35973568
    O      0.00000000      0.00000000      6.00000000
    O      1.96794000      1.96794000      6.71947137
   Ti      0.00000000      5.90382000      6.35973568
    O      0.00000000      3.93588000      6.00000000
    O      1.96794000      5.90382000      6.71947137
   Ti      0.00000000      9.83970000      6.35973568
    O      0.00000000      7.87176000      6.00000000
    O      1.96794000      9.83970000      6.71947137
   Ti      0.00000000     13.77558000      6.35973568
    O      0.00000000     11.80764000      6.00000000
    O      1.96794000     13.77558000      6.71947137
   Ti      3.88317592     15.71747706      9.37579991
    O      3.91120245     13.94968877      8.39187059
    O      3.93528091      9.88055507      8.35516892
    O      0.01649107      6.05097149      8.33362304
   Ti      1.96618738      9.88027209      8.63239603
   Ti      1.94359702     13.53557289      8.63710701
   Ti      1.98507636      6.24394723      8.67892700
    O      1.95063282      8.06400218      9.23086093
    O      2.48468563      2.06038203     10.89799977
    O      3.92730193      1.41389420      8.30682994
    O      1.95462853     11.71799067      9.20145721
   Ti      2.28481724      3.76399996     11.44358050
    O      2.14243721      5.01462693     10.13395508
    O      1.91083711     15.22550355      9.69991091
    O      0.31847058      3.86974239     11.94426235
