   27
Geometry Step: 0
   Ti      0.00000000      1.96794000      6.35973568
    O      0.00000000      0.00000000      6.00000000
    O      1.96794000      1.96794000      6.71947137
   Ti      0.00000000      5.90382000      6.35973568
    O      0.00000000      3.93588000      6.00000000
    O      1.96794000      5.90382000      6.71947137
   Ti      0.00000000      9.83970000      6.35973568
    O      0.00000000      7.87176000      6.00000000
    O      1.96794000      9.83970000      6.71947137
   Ti      0.00000000     13.77558000      6.35973568
    O      0.00000000     11.80764000      6.00000000
    O      1.96794000     13.77558000      6.71947137
   Ti      1.98094279      9.74418724      8.65956195
   Ti      1.91378890     13.28745489      8.64157458
   Ti      1.93391681      6.15275808      8.71992756
    O      3.68584719      2.48366053      8.18499377
    O      1.07867504      1.32829887      9.97135817
    O      2.00195167     11.54187413      9.29532218
    O      1.96832317      7.94330839      9.45752981
    O      1.64702197     14.45821952     10.22800373
    O      1.84912729      4.77785281      9.87968574
    O      3.21312991      1.09511659     12.04439788
    O      3.90380985      6.13699715      8.33586918
   Ti      1.88645024     15.58306387     11.88320953
    O      0.00758729      9.71797508      8.35121783
    O      2.60220168     15.60983264      8.16683539
   Ti      0.10283771     15.59743411      9.47520853
