   27
Geometry Step: 0
   Ti      0.00000000      1.96794000      6.35973568
    O      0.00000000      0.00000000      6.00000000
    O      1.96794000      1.96794000      6.71947137
   Ti      0.00000000      5.90382000      6.35973568
    O      0.00000000      3.93588000      6.00000000
    O      1.96794000      5.90382000      6.71947137
   Ti      0.00000000      9.83970000      6.35973568
    O      0.00000000      7.87176000      6.00000000
    O      1.96794000      9.83970000      6.71947137
   Ti      0.00000000     13.77558000      6.35973568
    O      0.00000000     11.80764000      6.00000000
    O      1.96794000     13.77558000      6.71947137
   Ti      3.19096197      7.86185866      9.83378399
    O      1.97262456     15.73528877      9.40756363
   Ti      1.98873166     10.47209641      8.65441713
    O      1.95888114     12.22233569      9.38652735
    O      0.01992084     10.41798647      8.30392522
    O      2.27046022      9.45480539     10.22798501
   Ti      1.99130166      5.24964197      8.65362955
    O      0.63530337      7.86162669      8.69389667
    O      2.28172956      6.27436079     10.22203875
    O      0.00154652      1.76857413      8.34157540
    O      1.96041352      3.50163249      9.39102521
   Ti      1.96971796      1.73987547      8.63404357
   Ti      1.96894781     13.98656076      8.63624228
    O      0.00119047     13.95680153      8.34286143
    O      0.02185618      5.30594694      8.30485565
