   27
Geometry Step: 0
   Ti      0.00000000      1.96794000      6.35973568
    O      0.00000000      0.00000000      6.00000000
    O      1.96794000      1.96794000      6.71947137
   Ti      0.00000000      5.90382000      6.35973568
    O      0.00000000      3.93588000      6.00000000
    O      1.96794000      5.90382000      6.71947137
   Ti      0.00000000      9.83970000      6.35973568
    O      0.00000000      7.87176000      6.00000000
    O      1.96794000      9.83970000      6.71947137
   Ti      0.00000000     13.77558000      6.35973568
    O      0.00000000     11.80764000      6.00000000
    O      1.96794000     13.77558000      6.71947137
    O      2.03437858      4.95554383     10.09073848
   Ti      1.97630529      9.72020359      8.63658938
    O      3.92276219      6.08279592      8.32829424
    O      0.13628908      1.67878591      8.37164956
    O      0.09539484      0.07530136     11.19774616
    O      2.15326524      2.10657613     10.65466736
    O      1.93701030      8.01687019      9.27105632
    O      0.15602158      3.88159219     11.91985589
    O      0.00356086     10.11934052      8.38263164
   Ti      1.96130825      6.21202419      8.66396889
   Ti      0.16068986      1.59451813     10.25494650
    O      1.97988343     11.43791825      9.67442711
   Ti      0.00734026     11.86876778      9.36212288
    O      0.01931932     13.29912984      8.30374822
   Ti      2.10541909      3.81665915     11.47282382
