   27
Geometry Step: 0
   Ti      0.00000000      1.96794000      6.35973568
    O      0.00000000      0.00000000      6.00000000
    O      1.96794000      1.96794000      6.71947137
   Ti      0.00000000      5.90382000      6.35973568
    O      0.00000000      3.93588000      6.00000000
    O      1.96794000      5.90382000      6.71947137
   Ti      0.00000000      9.83970000      6.35973568
    O      0.00000000      7.87176000      6.00000000
    O      1.96794000      9.83970000      6.71947137
   Ti      0.00000000     13.77558000      6.35973568
    O      0.00000000     11.80764000      6.00000000
    O      1.96794000     13.77558000      6.71947137
    O      0.00125981      9.87078363      8.32659674
    O      1.98133417      4.93330802      9.84313115
    O      3.93534956     13.58062946      8.31798827
   Ti      1.97014928      6.39202313      8.63078784
    O      0.01922971      3.41056265      8.92282460
   Ti      1.96889930     13.41548741      8.65547433
   Ti      1.96801451      0.24649099     11.21846344
   Ti      1.98758764      3.13105125      9.28555019
    O      0.00740906      1.11995979      8.24675783
    O      0.00132725      6.27145433      8.30362461
   Ti      1.96788903      9.88697913      8.61746703
    O      1.99008909      1.98746324     10.70159754
    O      1.96879912     11.65617828      9.34230497
    O      1.97025814      8.14361995      9.36373087
    O      1.96879308     14.68670626      9.93352783
