   27
Geometry Step: 0
   Ti      0.00000000      1.96794000      6.35973568
    O      0.00000000      0.00000000      6.00000000
    O      1.96794000      1.96794000      6.71947137
   Ti      0.00000000      5.90382000      6.35973568
    O      0.00000000      3.93588000      6.00000000
    O      1.96794000      5.90382000      6.71947137
   Ti      0.00000000      9.83970000      6.35973568
    O      0.00000000      7.87176000      6.00000000
    O      1.96794000      9.83970000      6.71947137
   Ti      0.00000000     13.77558000      6.35973568
    O      0.00000000     11.80764000      6.00000000
    O      1.96794000     13.77558000      6.71947137
    O      3.90426207      5.52987768      8.25821075
    O      1.90821137     12.25068644      9.28873470
    O      3.91517723     10.23125891      8.31560143
   Ti      1.96991127      5.42474603      8.60798396
   Ti      1.54090915      7.84248985     11.92411536
    O      3.91869844     14.15234384      8.29593026
    O      1.91753707      6.72899068      9.86895318
    O      3.91194487      1.91268446      8.35479018
    O      0.03319883      6.76409286     11.95055767
    O      1.80674340      9.50164152     10.36177450
   Ti      1.93127395     10.46109501      8.65775738
   Ti      1.96535347     14.09240186      8.60300768
    O      1.94392905      3.67123578      9.33971592
   Ti      1.95780023      1.87545559      8.62889414
    O      1.96011432      0.11802727      9.36568011
