   27
Geometry Step: 0
   Ti      0.00000000      1.96794000      6.35973568
    O      0.00000000      0.00000000      6.00000000
    O      1.96794000      1.96794000      6.71947137
   Ti      0.00000000      5.90382000      6.35973568
    O      0.00000000      3.93588000      6.00000000
    O      1.96794000      5.90382000      6.71947137
   Ti      0.00000000      9.83970000      6.35973568
    O      0.00000000      7.87176000      6.00000000
    O      1.96794000      9.83970000      6.71947137
   Ti      0.00000000     13.77558000      6.35973568
    O      0.00000000     11.80764000      6.00000000
    O      1.96794000     13.77558000      6.71947137
    O      3.91531039     13.27205663      8.28601507
    O      2.00246732      1.23472024      9.89554908
   Ti      1.92294602      2.55210337      8.57239350
    O      3.83143786      0.06910817     11.92408478
   Ti      1.96896442      9.66849911      8.65517289
   Ti      1.97035619      6.06813176      8.64963080
   Ti      1.95008811     13.17814454      8.57898254
    O      1.95937484     11.44971241      9.33861910
    O      0.00461794      6.02727887      8.35511745
    O      1.98614880      4.28974475      9.32389507
    O      1.96125563      7.85294757      9.44801065
    O      0.00135376      9.69038182      8.35572453
    O      3.90310141      2.28496988      8.32112150
   Ti      3.49733679      0.12775126     10.15923978
    O      2.25405813     14.57662892      9.76380603
