   27
Geometry Step: 0
   Ti      0.00000000      1.96794000      6.35973568
    O      0.00000000      0.00000000      6.00000000
    O      1.96794000      1.96794000      6.71947137
   Ti      0.00000000      5.90382000      6.35973568
    O      0.00000000      3.93588000      6.00000000
    O      1.96794000      5.90382000      6.71947137
   Ti      0.00000000      9.83970000      6.35973568
    O      0.00000000      7.87176000      6.00000000
    O      1.96794000      9.83970000      6.71947137
   Ti      0.00000000     13.77558000      6.35973568
    O      0.00000000     11.80764000      6.00000000
    O      1.96794000     13.77558000      6.71947137
   Ti      1.93937061     10.44599507      8.61056388
   Ti      1.99536856     14.03523982      8.63783905
    O      0.00980245     14.05503706      8.34083662
    O      1.91482900      6.27018178     10.00918367
    O      1.91496281      9.36509239     10.11549676
    O      2.00538130     12.21777323      9.24697228
   Ti      1.95980610      1.82760056      8.66344929
   Ti      1.90141304      7.83265042     11.00712776
   Ti      1.93290522      5.20448048      8.60466241
    O      3.91698080     10.25693452      8.30547115
    O      1.97447386      0.05655977      9.38452008
    O      3.93499449      1.89009919      8.34569166
    O      3.87789758      7.73321915     11.35972385
    O      1.94622356      3.50655883      9.43668235
    O      3.91609871      5.45361715      8.29637840
