   27
Geometry Step: 0
   Ti      0.00000000      1.96794000      6.35973568
    O      0.00000000      0.00000000      6.00000000
    O      1.96794000      1.96794000      6.71947137
   Ti      0.00000000      5.90382000      6.35973568
    O      0.00000000      3.93588000      6.00000000
    O      1.96794000      5.90382000      6.71947137
   Ti      0.00000000      9.83970000      6.35973568
    O      0.00000000      7.87176000      6.00000000
    O      1.96794000      9.83970000      6.71947137
   Ti      0.00000000     13.77558000      6.35973568
    O      0.00000000     11.80764000      6.00000000
    O      1.96794000     13.77558000      6.71947137
    O      1.98514649      4.27659852      9.26464080
    O      2.04609579     11.47254470      9.30765297
    O      1.96736688      7.88557522      9.31715639
    O      0.01131186      9.71802387      8.32771241
   Ti      2.03719108     13.25088395      8.63814304
   Ti      1.97370106      9.67621171      8.63037695
   Ti      2.00870452      2.51251149      8.64361834
   Ti      2.10761748      0.00969036     11.30156578
    O      0.14927403      0.18320248     11.90161435
    O      0.00056002      6.04705084      8.32996434
    O      0.04593202      2.30082794      8.31774000
    O      2.20213149     14.33625657     10.19739695
    O      0.06759536     13.44799073      8.32191784
   Ti      1.96716416      6.08746585      8.63774472
    O      2.08151440      1.43620532     10.20953041
