   27
Geometry Step: 0
   Ti      0.00000000      1.96794000      6.35973568
    O      0.00000000      0.00000000      6.00000000
    O      1.96794000      1.96794000      6.71947137
   Ti      0.00000000      5.90382000      6.35973568
    O      0.00000000      3.93588000      6.00000000
    O      1.96794000      5.90382000      6.71947137
   Ti      0.00000000      9.83970000      6.35973568
    O      0.00000000      7.87176000      6.00000000
    O      1.96794000      9.83970000      6.71947137
   Ti      0.00000000     13.77558000      6.35973568
    O      0.00000000     11.80764000      6.00000000
    O      1.96794000     13.77558000      6.71947137
    O      1.96688524     13.37284484     10.19575737
    O      3.93555455     11.17922459     10.53324231
    O      3.93576859      8.21504737     11.08502129
   Ti      1.96810947     14.50291684      8.56973791
   Ti      1.96824851      2.21911632      8.60979248
    O      3.93576108      9.37128243      8.30343574
    O      0.00078246     13.92442814      8.40493810
    O      1.96761991      0.42002937      9.25295904
   Ti      3.93484584      7.84842590      9.28321487
    O      1.96765953      3.94993718      9.37599779
    O      1.96887478      7.47287379      9.29634759
   Ti      1.96988640      5.68863835      8.62184727
   Ti      3.93554263     12.84164179     10.14929367
    O      3.93478136      5.92986291      8.41632849
    O      3.93586500      2.18054402      8.33576028
