   27
Geometry Step: 0
   Ti      0.00000000      1.96794000      6.35973568
    O      0.00000000      0.00000000      6.00000000
    O      1.96794000      1.96794000      6.71947137
   Ti      0.00000000      5.90382000      6.35973568
    O      0.00000000      3.93588000      6.00000000
    O      1.96794000      5.90382000      6.71947137
   Ti      0.00000000      9.83970000      6.35973568
    O      0.00000000      7.87176000      6.00000000
    O      1.96794000      9.83970000      6.71947137
   Ti      0.00000000     13.77558000      6.35973568
    O      0.00000000     11.80764000      6.00000000
    O      1.96794000     13.77558000      6.71947137
    O      0.02910012     14.07203808      8.32738366
    O      3.93559625      2.07591975      8.34486765
    O      3.81976343     11.56356974     11.98015923
    O      3.90356124      9.59348918      8.34971524
   Ti      1.96751819      2.13494033      8.62395814
    O      1.96176773      0.35799453      9.30509251
    O      1.96649121      3.93215251      9.29275820
    O      1.96577992      7.51375488      9.27079199
    O      1.78987012     10.31692849     10.21818659
   Ti      3.13182005     11.58074428     10.31524563
    O      2.18214327     13.17621059     10.10908750
   Ti      1.99896528     14.31894122      8.63527779
   Ti      1.93316011      9.28911872      8.63517000
    O      0.00080020      5.77185668      8.34379521
   Ti      1.96715740      5.72873375      8.61956270
