   27
Geometry Step: 0
   Ti      0.00000000      1.96794000      6.35973568
    O      0.00000000      0.00000000      6.00000000
    O      1.96794000      1.96794000      6.71947137
   Ti      0.00000000      5.90382000      6.35973568
    O      0.00000000      3.93588000      6.00000000
    O      1.96794000      5.90382000      6.71947137
   Ti      0.00000000      9.83970000      6.35973568
    O      0.00000000      7.87176000      6.00000000
    O      1.96794000      9.83970000      6.71947137
   Ti      0.00000000     13.77558000      6.35973568
    O      0.00000000     11.80764000      6.00000000
    O      1.96794000     13.77558000      6.71947137
   Ti      1.94381301     10.38674960      8.64378150
   Ti      3.86563597      4.02985356      9.63651642
    O      1.87875068      9.05399019      9.99632525
    O      1.97950214     12.05808662      9.55401975
    O      3.92034206      1.54551098      8.30544310
    O      0.03086106     13.83845875      8.26412678
    O      3.92604955      5.10184314      8.23767130
   Ti      1.95081453      1.50912351      8.66668218
   Ti      1.82440368      7.29308542      9.27132642
    O      1.93006885     15.70222365      9.58338529
    O      3.79118721      7.45441338      8.89225865
    O      1.86250145      5.97631061     10.51580065
    O      3.90409011     10.29799489      8.30150303
    O      1.90685701      3.23291729      9.67082894
   Ti      3.27719792     13.26821339      9.86190405
