   27
Geometry Step: 0
   Ti      0.00000000      1.96794000      6.35973568
    O      0.00000000      0.00000000      6.00000000
    O      1.96794000      1.96794000      6.71947137
   Ti      0.00000000      5.90382000      6.35973568
    O      0.00000000      3.93588000      6.00000000
    O      1.96794000      5.90382000      6.71947137
   Ti      0.00000000      9.83970000      6.35973568
    O      0.00000000      7.87176000      6.00000000
    O      1.96794000      9.83970000      6.71947137
   Ti      0.00000000     13.77558000      6.35973568
    O      0.00000000     11.80764000      6.00000000
    O      1.96794000     13.77558000      6.71947137
    O      3.91962058      6.17036541      8.33879960
   Ti      1.95253059      6.40616043      8.69684178
    O      3.92800385      9.95740909      8.35608878
    O      3.86283179      3.83622446     12.06244306
    O      0.05218543      1.27695119      8.18205699
   Ti      0.75101815     14.27177077      9.89450597
    O      3.84864140      3.60451079      9.57240724
   Ti      1.96055390      9.95578178      8.65999574
   Ti      1.89643139      4.16413711     11.63851939
    O      1.99797211     15.53745464     10.01161013
    O      1.95817913      8.18053490      9.34985074
   Ti      3.91861999      1.86371549      9.89697606
    O      1.91819109     11.62939188      9.54242265
    O      1.92030116      5.31008775     10.27347377
    O      3.89634500     13.78391506      8.30507249
