   27
Geometry Step: 0
   Ti      0.00000000      1.96794000      6.35973568
    O      0.00000000      0.00000000      6.00000000
    O      1.96794000      1.96794000      6.71947137
   Ti      0.00000000      5.90382000      6.35973568
    O      0.00000000      3.93588000      6.00000000
    O      1.96794000      5.90382000      6.71947137
   Ti      0.00000000      9.83970000      6.35973568
    O      0.00000000      7.87176000      6.00000000
    O      1.96794000      9.83970000      6.71947137
   Ti      0.00000000     13.77558000      6.35973568
    O      0.00000000     11.80764000      6.00000000
    O      1.96794000     13.77558000      6.71947137
    O      2.15582607      5.90833167     10.14719819
    O      1.68398580     11.53850876      9.06743074
   Ti      0.92392246      4.58565699      9.65258244
    O      2.25328346      8.52599376      8.94030801
   Ti      1.92395819      1.34583261      8.60185756
    O      0.27698063      7.86315190     11.00965592
    O      3.89286806      1.42880539      8.27849772
    O      1.53818182     15.31484682      9.22385669
   Ti      3.58191036     11.32684075      9.66241978
    O      0.02508021      5.51828693      8.31094310
   Ti      1.84030980     13.52101735      8.64663818
    O      3.74948293     10.43945270     11.19428854
    O      3.75810344     13.30009786      9.34280954
   Ti      2.20420222      7.74196714     10.49731388
    O      1.58700589      2.81945835      9.74266230
