   27
Geometry Step: 0
   Ti      0.00000000      1.96794000      6.35973568
    O      0.00000000      0.00000000      6.00000000
    O      1.96794000      1.96794000      6.71947137
   Ti      0.00000000      5.90382000      6.35973568
    O      0.00000000      3.93588000      6.00000000
    O      1.96794000      5.90382000      6.71947137
   Ti      0.00000000      9.83970000      6.35973568
    O      0.00000000      7.87176000      6.00000000
    O      1.96794000      9.83970000      6.71947137
   Ti      0.00000000     13.77558000      6.35973568
    O      0.00000000     11.80764000      6.00000000
    O      1.96794000     13.77558000      6.71947137
    O      0.02810182      9.18057606      8.31406806
   Ti      1.99908055      9.23413146      8.56383160
   Ti      1.97441034     14.23521322      8.59558216
    O      0.03744548      5.93142177      8.36347896
    O      1.02984982      5.92206492     13.00436319
    O      2.50729707      6.45692476     10.68904698
   Ti      2.00177481      5.92002331      8.72439963
    O      1.98601061     10.26942303     10.11181952
    O      1.92047737     13.14004458     10.21018312
    O      3.07079217      7.97140814     13.35073749
    O      0.02827618     11.68618580     11.53907448
   Ti      2.93443354      6.38186659     12.56392573
   Ti      1.98616971     11.67778497     11.40570138
    O      2.04486640     11.83112455     13.29986577
    O      0.01527551     14.31431033      8.29467074
