   27
Geometry Step: 0
   Ti      0.00000000      1.96794000      6.35973568
    O      0.00000000      0.00000000      6.00000000
    O      1.96794000      1.96794000      6.71947137
   Ti      0.00000000      5.90382000      6.35973568
    O      0.00000000      3.93588000      6.00000000
    O      1.96794000      5.90382000      6.71947137
   Ti      0.00000000      9.83970000      6.35973568
    O      0.00000000      7.87176000      6.00000000
    O      1.96794000      9.83970000      6.71947137
   Ti      0.00000000     13.77558000      6.35973568
    O      0.00000000     11.80764000      6.00000000
    O      1.96794000     13.77558000      6.71947137
    O      1.96793998      3.51125931      9.29370115
    O      0.00000005     10.30960924      8.29223778
   Ti      1.96794016      1.73400288      8.61412242
   Ti      1.96793999     10.46259557      8.61064202
    O      3.93587937      1.74989502      8.33818512
    O      3.93587937     13.99362498      8.33818512
    O      1.96794000      7.87176000     12.15337400
   Ti     -0.00000001      7.87176001     11.54396850
    O      1.96794000      9.34227979     10.00893415
    O      0.00000005      5.43391076      8.29223778
    O      1.96793985      0.00000000      9.41113964
    O      1.96793998     12.23226068      9.29370115
   Ti      1.96793999      5.28092444      8.61064203
    O      1.96794000      6.40124018     10.00893412
   Ti      1.96794015     14.00951711      8.61412242
