   27
Geometry Step: 0
   Ti      0.00000000      1.96794000      6.35973568
    O      0.00000000      0.00000000      6.00000000
    O      1.96794000      1.96794000      6.71947137
   Ti      0.00000000      5.90382000      6.35973568
    O      0.00000000      3.93588000      6.00000000
    O      1.96794000      5.90382000      6.71947137
   Ti      0.00000000      9.83970000      6.35973568
    O      0.00000000      7.87176000      6.00000000
    O      1.96794000      9.83970000      6.71947137
   Ti      0.00000000     13.77558000      6.35973568
    O      0.00000000     11.80764000      6.00000000
    O      1.96794000     13.77558000      6.71947137
    O      0.02521417      1.66687824      8.26287199
    O      1.95808350      4.88363029     11.12796877
   Ti      0.47958269      0.86406554      9.85532713
   Ti      1.94873378     13.62822485      8.71578702
    O      3.92233819      9.42207344      8.32177444
   Ti      2.55045409      3.25320092     11.66317699
    O      3.91751122      6.30915243      8.30741144
   Ti      1.87110051      6.63034768     11.48206381
    O      3.92790451     13.57999978      8.34204953
    O      1.89984750      3.03575302     13.30689147
    O      1.92950203      7.75507392      9.94173212
    O      1.93975325     12.16674261      9.78095973
    O      1.52843798      2.02581309     10.68858026
   Ti      3.91970033      7.86689438      9.30790230
    O      1.74349907     15.24363121      9.73498994
