   27
Geometry Step: 0
   Ti      0.00000000      1.96794000      6.35973568
    O      0.00000000      0.00000000      6.00000000
    O      1.96794000      1.96794000      6.71947137
   Ti      0.00000000      5.90382000      6.35973568
    O      0.00000000      3.93588000      6.00000000
    O      1.96794000      5.90382000      6.71947137
   Ti      0.00000000      9.83970000      6.35973568
    O      0.00000000      7.87176000      6.00000000
    O      1.96794000      9.83970000      6.71947137
   Ti      0.00000000     13.77558000      6.35973568
    O      0.00000000     11.80764000      6.00000000
    O      1.96794000     13.77558000      6.71947137
    O      1.97826816      0.04094691      9.08027062
    O      3.92663725     13.81137964      8.30554978
   Ti      2.06925422      5.67109960      8.70161104
    O      3.82576326     10.10339386      8.25198280
    O      2.07972857      3.83709840      9.79266567
   Ti      1.95842240     14.04208128      8.66456535
   Ti      0.59133936      7.85561334     10.12284917
   Ti      0.13087236      3.96929121     10.11955915
    O      0.85651960      5.90383506     10.53074938
   Ti      2.69008944     10.92564655     10.35811008
    O      1.99121215     12.51075685      9.77541558
    O      2.74365201      7.48377039      9.30513415
    O      3.91518995      5.01088242      8.31245193
    O      1.33243867      9.61064837     10.43241738
    O      0.02897837      2.02125802      8.26803156
