   27
Geometry Step: 0
   Ti      0.00000000      1.96794000      6.35973568
    O      0.00000000      0.00000000      6.00000000
    O      1.96794000      1.96794000      6.71947137
   Ti      0.00000000      5.90382000      6.35973568
    O      0.00000000      3.93588000      6.00000000
    O      1.96794000      5.90382000      6.71947137
   Ti      0.00000000      9.83970000      6.35973568
    O      0.00000000      7.87176000      6.00000000
    O      1.96794000      9.83970000      6.71947137
   Ti      0.00000000     13.77558000      6.35973568
    O      0.00000000     11.80764000      6.00000000
    O      1.96794000     13.77558000      6.71947137
   Ti      1.98088668      5.46111055      8.66454404
    O      1.52938850      9.54018114     10.37667428
    O      3.93236337      1.87588146      8.34279039
    O      1.51086529      6.32344581     10.38574599
    O      0.07622737     13.72846436      8.27896150
    O      1.96973118      3.66023849      9.25639715
    O      0.00490585     10.40161106      8.30663620
    O      2.10114085      7.95853667      8.51963206
   Ti      0.67485586      7.91907986      9.82123827
    O      2.50181109     13.42059107     10.39059470
   Ti      2.03542472     13.99002763      8.72901128
    O      3.92444826      5.51579051      8.30122162
   Ti      1.98533907     10.29511459      8.58123117
   Ti      1.96534102      1.89295566      8.63690541
    O      1.95569876      0.05710857      9.14372595
