   27
Geometry Step: 0
   Ti      0.00000000      1.96794000      6.35973568
    O      0.00000000      0.00000000      6.00000000
    O      1.96794000      1.96794000      6.71947137
   Ti      0.00000000      5.90382000      6.35973568
    O      0.00000000      3.93588000      6.00000000
    O      1.96794000      5.90382000      6.71947137
   Ti      0.00000000      9.83970000      6.35973568
    O      0.00000000      7.87176000      6.00000000
    O      1.96794000      9.83970000      6.71947137
   Ti      0.00000000     13.77558000      6.35973568
    O      0.00000000     11.80764000      6.00000000
    O      1.96794000     13.77558000      6.71947137
    O      0.00135234      9.60142364      8.33352724
    O      1.97477306     10.50070411     10.20871283
    O      3.93476839      2.20883649      8.34020645
   Ti      1.96811102     14.39064643      8.61050114
   Ti      1.96695751      2.22618501      8.61606343
   Ti      1.96248817     11.93518738     11.27581258
   Ti      1.96992941      9.41047266      8.64524194
    O      3.93432778     14.19432908      8.30780464
    O      3.92795695     11.94435898     11.77381857
    O      3.93495364      5.84544262      8.35256937
    O      1.96506729      4.02302659      9.26478404
   Ti      1.96836649      5.82211145      8.63087916
    O      1.96018814     13.35965592     10.18960333
    O      1.96683867      7.63266629      9.21332166
    O      1.96464963      0.43166225      9.24336869
