   27
Geometry Step: 0
   Ti      0.00000000      1.96794000      6.35973568
    O      0.00000000      0.00000000      6.00000000
    O      1.96794000      1.96794000      6.71947137
   Ti      0.00000000      5.90382000      6.35973568
    O      0.00000000      3.93588000      6.00000000
    O      1.96794000      5.90382000      6.71947137
   Ti      0.00000000      9.83970000      6.35973568
    O      0.00000000      7.87176000      6.00000000
    O      1.96794000      9.83970000      6.71947137
   Ti      0.00000000     13.77558000      6.35973568
    O      0.00000000     11.80764000      6.00000000
    O      1.96794000     13.77558000      6.71947137
    O      0.00136714      9.43431653      8.29794041
    O      1.97386258     11.48281630     12.66430698
   Ti      0.00330816     11.19357974     10.61144666
    O      1.96832478      0.40201428      9.28297009
    O      3.93559288      2.15600730      8.34150649
    O      0.00012692      5.79116902      8.34692642
   Ti      1.96759273      5.75902682      8.62609705
    O      0.00138767     14.16629970      8.30290153
   Ti      1.96731018      9.28810897      8.63333994
    O      1.96790846      3.97033897      9.30931324
   Ti      1.96742016     14.34748183      8.64607319
    O      1.97045439     10.55112153     10.11056220
    O      1.96643915      7.52573273      9.34103900
    O      1.96912636     13.25338208     10.10001750
   Ti      1.96793470      2.18284414      8.61498438
