   27
Geometry Step: 0
   Ti      0.00000000      1.96794000      6.35973568
    O      0.00000000      0.00000000      6.00000000
    O      1.96794000      1.96794000      6.71947137
   Ti      0.00000000      5.90382000      6.35973568
    O      0.00000000      3.93588000      6.00000000
    O      1.96794000      5.90382000      6.71947137
   Ti      0.00000000      9.83970000      6.35973568
    O      0.00000000      7.87176000      6.00000000
    O      1.96794000      9.83970000      6.71947137
   Ti      0.00000000     13.77558000      6.35973568
    O      0.00000000     11.80764000      6.00000000
    O      1.96794000     13.77558000      6.71947137
    O      1.97037955      0.00845761      9.31458566
    O      0.00155956     13.90671569      8.34126278
    O      1.97824924      9.30462159     10.19606701
    O      1.96719565     12.17311977      9.29041630
   Ti      1.97053642     10.39579313      8.63587517
   Ti      1.97107136      5.36602363      8.63788094
    O      0.00384774      5.55641788      8.31956131
    O      0.00166490     10.20265036      8.31756075
   Ti      1.96926450      1.79940513      8.62335491
    O      1.97856417      6.45840710     10.20018842
    O      1.96667765      3.58593178      9.28832532
   Ti      1.96832170     13.96079717      8.62270666
   Ti      1.97128699      7.88231929     11.28510087
    O      0.00256224      7.88023046     11.80863415
    O      0.00081086      1.85424827      8.34331793
