   27
Geometry Step: 0
   Ti      0.00000000      1.96794000      6.35973568
    O      0.00000000      0.00000000      6.00000000
    O      1.96794000      1.96794000      6.71947137
   Ti      0.00000000      5.90382000      6.35973568
    O      0.00000000      3.93588000      6.00000000
    O      1.96794000      5.90382000      6.71947137
   Ti      0.00000000      9.83970000      6.35973568
    O      0.00000000      7.87176000      6.00000000
    O      1.96794000      9.83970000      6.71947137
   Ti      0.00000000     13.77558000      6.35973568
    O      0.00000000     11.80764000      6.00000000
    O      1.96794000     13.77558000      6.71947137
    O      2.20248563      9.42652032     10.21905626
   Ti      1.96421764      1.74595759      8.63935477
    O      3.93365367     10.39753641      8.28450706
   Ti      3.08185708      7.87146311      9.85716148
    O      3.93197063      1.82896348      8.34647946
    O      2.20310977      6.31675299     10.21930443
   Ti      1.95038395     10.47938430      8.65108634
    O      1.95032098     12.22983637      9.37615766
   Ti      1.95143140      5.26410235      8.65153334
    O      1.95039203      3.51457418      9.37837487
    O      0.53172353      7.87138909      8.66304868
   Ti      1.96496483     13.99811668      8.63877297
    O      3.93324738      5.34576028      8.28448457
    O      3.93128129     13.91594643      8.34655802
    O      1.95876334      0.00075905      9.45390349
