   27
Geometry Step: 0
   Ti      0.00000000      1.96794000      6.35973568
    O      0.00000000      0.00000000      6.00000000
    O      1.96794000      1.96794000      6.71947137
   Ti      0.00000000      5.90382000      6.35973568
    O      0.00000000      3.93588000      6.00000000
    O      1.96794000      5.90382000      6.71947137
   Ti      0.00000000      9.83970000      6.35973568
    O      0.00000000      7.87176000      6.00000000
    O      1.96794000      9.83970000      6.71947137
   Ti      0.00000000     13.77558000      6.35973568
    O      0.00000000     11.80764000      6.00000000
    O      1.96794000     13.77558000      6.71947137
   Ti      1.96678317      6.05133359      8.64166749
    O      3.93527481      6.00928821      8.31240148
    O      1.96779044      4.28042875      9.32311013
   Ti      1.96672156      9.72851753      8.63877275
    O      3.89463530     11.77521342     11.43476434
    O      1.94695440     11.59494609      9.29797322
   Ti      1.92686999     11.96126976     11.18378055
    O      1.96132651      7.90291806      9.09615160
    O      1.92611533     13.77390767     10.63266591
   Ti      1.96438163     13.51551976      8.66188835
   Ti      1.97107969      2.50933143      8.57903092
    O      3.93406613      2.48719086      8.28163297
    O      1.97831067      0.98568591      9.53004184
    O      3.93445582      9.78073411      8.34260484
    O      3.92893108     13.62136353      8.34876491
