   27
Geometry Step: 0
   Ti      0.00000000      1.96794000      6.35973568
    O      0.00000000      0.00000000      6.00000000
    O      1.96794000      1.96794000      6.71947137
   Ti      0.00000000      5.90382000      6.35973568
    O      0.00000000      3.93588000      6.00000000
    O      1.96794000      5.90382000      6.71947137
   Ti      0.00000000      9.83970000      6.35973568
    O      0.00000000      7.87176000      6.00000000
    O      1.96794000      9.83970000      6.71947137
   Ti      0.00000000     13.77558000      6.35973568
    O      0.00000000     11.80764000      6.00000000
    O      1.96794000     13.77558000      6.71947137
   Ti      2.12714401     11.82176073     11.46405150
    O      0.87309359      1.54932935     11.20915406
    O      2.13217616      7.45624113      9.07226513
    O      0.69812662     12.96462724     11.39858333
    O      1.90005432     15.69064749      9.05221722
   Ti      1.97221603      1.86165360      8.92977425
    O      0.06252586     13.48541587      8.28594827
    O      1.87124999      3.83052337      9.13194478
   Ti      1.96227775      9.13971794      8.46760558
   Ti      3.88441910     14.33490437     10.31556220
   Ti      1.26830100      5.92738084      9.47915385
    O      0.03544794      9.24533585      8.42712917
    O      2.03799372     11.29680673      9.56042277
    O      3.92022613      5.49253917      8.40699833
    O      3.87877731      1.84095536      8.28138601
