   27
Geometry Step: 0
   Ti      0.00000000      1.96794000      6.35973568
    O      0.00000000      0.00000000      6.00000000
    O      1.96794000      1.96794000      6.71947137
   Ti      0.00000000      5.90382000      6.35973568
    O      0.00000000      3.93588000      6.00000000
    O      1.96794000      5.90382000      6.71947137
   Ti      0.00000000      9.83970000      6.35973568
    O      0.00000000      7.87176000      6.00000000
    O      1.96794000      9.83970000      6.71947137
   Ti      0.00000000     13.77558000      6.35973568
    O      0.00000000     11.80764000      6.00000000
    O      1.96794000     13.77558000      6.71947137
    O      2.02534974      2.38131910     10.05585354
    O      0.00026096     10.05875481      8.33046422
    O      1.97684122     11.81933334      9.43615835
   Ti      1.97088220     13.52953335      8.61066493
   Ti      1.97948250      1.20441916      8.55909372
    O      0.00262929     13.57920562      8.33150051
    O      1.98676354     15.25067916      9.41111760
    O      2.00287476      5.49756830     10.05195251
   Ti      1.08866853      3.93123991     10.02338376
    O      1.96691379      8.37709540      9.39268340
   Ti      1.96968363      6.67357576      8.55605579
   Ti      1.96838567     10.10528496      8.60717788
    O      0.00204394      6.54863752      8.26393600
    O      0.01184819      1.32417513      8.26315524
    O      3.81748608      3.93245429      8.69207163
