   27
Geometry Step: 0
   Ti      0.00000000      1.96794000      6.35973568
    O      0.00000000      0.00000000      6.00000000
    O      1.96794000      1.96794000      6.71947137
   Ti      0.00000000      5.90382000      6.35973568
    O      0.00000000      3.93588000      6.00000000
    O      1.96794000      5.90382000      6.71947137
   Ti      0.00000000      9.83970000      6.35973568
    O      0.00000000      7.87176000      6.00000000
    O      1.96794000      9.83970000      6.71947137
   Ti      0.00000000     13.77558000      6.35973568
    O      0.00000000     11.80764000      6.00000000
    O      1.96794000     13.77558000      6.71947137
    O      3.87729442      6.09757884      8.31647492
   Ti      1.99393813     13.45758506      8.63392882
    O      0.07331017      2.19869085      8.26923086
    O      0.36493546      0.74792396     11.22420879
   Ti      1.91045514      6.13314984      8.64611947
   Ti      2.32576072      0.51465129     11.04397218
    O      1.92282217      7.98412826      9.17697988
    O      3.92894667      9.80318045      8.34782122
   Ti      0.62708634      2.86052449      9.87425763
    O      2.43945498      2.35938537     10.47142088
    O      0.02211762     13.62646896      8.32926443
    O      2.18380058     14.84255869      9.94982967
    O      1.97462199     11.65422212      9.12777266
    O      1.47742011      4.55972984      9.63136305
   Ti      1.96503457      9.80916243      8.62546239
